<?xml version="1.0" encoding="UTF-8"?>
<configuration>
  <input>
    <net-file      value="net.net.xml"/>
    <additional-files value="parking.add.xml"/>
    <route-files   value="routes.rou.xml"/>
  </input>
  <time>
    <begin value="0"/>
    <end   value="5000"/>
  </time>
</configuration>
